<?xml version="1.0" encoding="UTF-8"?>

<!-- generated on 2026-02-09T16:19:42.480337+08:00 by Eclipse SUMO netedit 1.26.0
<neteditConfiguration xmlns:xsi="http://www.w3.org/2001/XMLSchema-instance" xsi:noNamespaceSchemaLocation="http://sumo.dlr.de/xsd/neteditConfiguration.xsd">

    <input>
        <sumo-net-file value="D:\ProgramFiles\traffic_program\SUMO_FILES\map.net.xml"/>
    </input>

    <output>
        <output-file value="D:\ProgramFiles\traffic_program\SUMO_FILES\map.net.xml"/>
    </output>

    <processing>
        <offset.disable-normalization value="true"/>
    </processing>

    <junctions>
        <no-turnarounds value="true"/>
    </junctions>

    <netedit>
        <new-network value="false"/>
    </netedit>

</neteditConfiguration>
-->

<net version="1.20" junctionCornerDetail="5" limitTurnSpeed="5.50" xmlns:xsi="http://www.w3.org/2001/XMLSchema-instance" xsi:noNamespaceSchemaLocation="http://sumo.dlr.de/xsd/net_file.xsd">

    <location netOffset="0.00,0.00" convBoundary="-175.41,-160.38,219.86,102.64" origBoundary="10000000000.00,10000000000.00,-10000000000.00,-10000000000.00" projParameter="!"/>

    <edge id=":22_0" function="internal">
        <lane id=":22_0_0" index="0" speed="6.51" length="9.05" shape="-65.61,28.54 -65.96,26.08 -67.01,24.33 -68.76,23.27 -71.21,22.92"/>
    </edge>
    <edge id=":22_1" function="internal">
        <lane id=":22_1_0" index="0" speed="13.89" length="14.42" shape="-65.61,28.54 -65.61,14.12"/>
    </edge>
    <edge id=":22_2" function="internal">
        <lane id=":22_2_0" index="0" speed="7.99" length="4.07" shape="-65.61,28.54 -65.06,24.68 -64.97,24.53"/>
    </edge>
    <edge id=":22_12" function="internal">
        <lane id=":22_12_0" index="0" speed="7.99" length="10.15" shape="-64.97,24.53 -63.40,21.93 -60.64,20.29 -56.78,19.77"/>
    </edge>
    <edge id=":22_3" function="internal">
        <lane id=":22_3_0" index="0" speed="6.49" length="9.03" shape="-56.80,22.97 -59.25,23.30 -61.01,24.34 -62.06,26.09 -62.41,28.54"/>
    </edge>
    <edge id=":22_4" function="internal">
        <lane id=":22_4_0" index="0" speed="13.89" length="14.41" shape="-56.80,22.97 -71.21,22.92"/>
    </edge>
    <edge id=":22_5" function="internal">
        <lane id=":22_5_0" index="0" speed="8.03" length="4.05" shape="-56.80,22.97 -60.65,22.39 -60.79,22.31"/>
    </edge>
    <edge id=":22_13" function="internal">
        <lane id=":22_13_0" index="0" speed="8.03" length="10.16" shape="-60.79,22.31 -63.41,20.73 -65.06,17.97 -65.61,14.12"/>
    </edge>
    <edge id=":22_6" function="internal">
        <lane id=":22_6_0" index="0" speed="6.54" length="9.08" shape="-62.41,14.12 -62.06,16.58 -61.00,18.34 -59.24,19.40 -56.78,19.77"/>
    </edge>
    <edge id=":22_7" function="internal">
        <lane id=":22_7_0" index="0" speed="13.89" length="14.42" shape="-62.41,14.12 -62.41,28.54"/>
    </edge>
    <edge id=":22_8" function="internal">
        <lane id=":22_8_0" index="0" speed="8.00" length="4.07" shape="-62.41,14.12 -62.96,17.97 -63.05,18.12"/>
    </edge>
    <edge id=":22_14" function="internal">
        <lane id=":22_14_0" index="0" speed="8.00" length="10.13" shape="-63.05,18.12 -64.61,20.72 -67.36,22.37 -71.21,22.92"/>
    </edge>
    <edge id=":22_9" function="internal">
        <lane id=":22_9_0" index="0" speed="6.51" length="9.03" shape="-71.21,19.72 -68.76,19.37 -67.01,18.32 -65.96,16.57 -65.61,14.12"/>
    </edge>
    <edge id=":22_10" function="internal">
        <lane id=":22_10_0" index="0" speed="13.89" length="14.43" shape="-71.21,19.72 -56.78,19.77"/>
    </edge>
    <edge id=":22_11" function="internal">
        <lane id=":22_11_0" index="0" speed="8.01" length="4.09" shape="-71.21,19.72 -67.36,20.27 -67.19,20.37"/>
    </edge>
    <edge id=":22_15" function="internal">
        <lane id=":22_15_0" index="0" speed="8.01" length="10.12" shape="-67.19,20.37 -64.61,21.93 -62.96,24.68 -62.41,28.54"/>
    </edge>
    <edge id=":23_0" function="internal">
        <lane id=":23_0_0" index="0" speed="6.54" length="9.07" shape="28.22,29.11 27.87,26.66 26.81,24.90 25.05,23.84 22.59,23.47"/>
    </edge>
    <edge id=":23_1" function="internal">
        <lane id=":23_1_0" index="0" speed="13.89" length="14.41" shape="28.22,29.11 28.22,14.70"/>
    </edge>
    <edge id=":23_2" function="internal">
        <lane id=":23_2_0" index="0" speed="8.01" length="4.06" shape="28.22,29.11 28.77,25.27 28.86,25.11"/>
    </edge>
    <edge id=":23_12" function="internal">
        <lane id=":23_12_0" index="0" speed="8.01" length="10.13" shape="28.86,25.11 30.42,22.51 33.17,20.86 37.02,20.30"/>
    </edge>
    <edge id=":23_3" function="internal">
        <lane id=":23_3_0" index="0" speed="6.52" length="9.05" shape="37.03,23.50 34.58,23.86 32.82,24.91 31.77,26.66 31.42,29.11"/>
    </edge>
    <edge id=":23_4" function="internal">
        <lane id=":23_4_0" index="0" speed="13.89" length="14.44" shape="37.03,23.50 22.59,23.47"/>
    </edge>
    <edge id=":23_5" function="internal">
        <lane id=":23_5_0" index="0" speed="8.00" length="4.10" shape="37.03,23.50 33.18,22.96 33.00,22.85"/>
    </edge>
    <edge id=":23_13" function="internal">
        <lane id=":23_13_0" index="0" speed="8.00" length="10.11" shape="33.00,22.85 30.42,21.31 28.77,18.56 28.22,14.70"/>
    </edge>
    <edge id=":23_6" function="internal">
        <lane id=":23_6_0" index="0" speed="6.50" length="9.04" shape="31.42,14.70 31.77,17.16 32.82,18.91 34.57,19.96 37.02,20.30"/>
    </edge>
    <edge id=":23_7" function="internal">
        <lane id=":23_7_0" index="0" speed="13.89" length="14.41" shape="31.42,14.70 31.42,29.11"/>
    </edge>
    <edge id=":23_8" function="internal">
        <lane id=":23_8_0" index="0" speed="7.99" length="4.07" shape="31.42,14.70 30.87,18.56 30.78,18.71"/>
    </edge>
    <edge id=":23_14" function="internal">
        <lane id=":23_14_0" index="0" speed="7.99" length="10.15" shape="30.78,18.71 29.21,21.31 26.45,22.95 22.59,23.47"/>
    </edge>
    <edge id=":23_9" function="internal">
        <lane id=":23_9_0" index="0" speed="6.49" length="9.03" shape="22.61,20.27 25.06,19.94 26.82,18.90 27.87,17.15 28.22,14.70"/>
    </edge>
    <edge id=":23_10" function="internal">
        <lane id=":23_10_0" index="0" speed="13.89" length="14.41" shape="22.61,20.27 37.02,20.30"/>
    </edge>
    <edge id=":23_11" function="internal">
        <lane id=":23_11_0" index="0" speed="8.02" length="4.04" shape="22.61,20.27 26.46,20.85 26.59,20.92"/>
    </edge>
    <edge id=":23_15" function="internal">
        <lane id=":23_15_0" index="0" speed="8.02" length="10.17" shape="26.59,20.92 29.22,22.51 30.87,25.27 31.42,29.11"/>
    </edge>
    <edge id=":24_0" function="internal">
        <lane id=":24_0_0" index="0" speed="6.51" length="9.04" shape="135.16,28.83 134.81,26.38 133.76,24.63 132.00,23.58 129.54,23.24"/>
    </edge>
    <edge id=":24_1" function="internal">
        <lane id=":24_1_0" index="0" speed="13.89" length="14.42" shape="135.16,28.83 135.09,14.41"/>
    </edge>
    <edge id=":24_2" function="internal">
        <lane id=":24_2_0" index="0" speed="8.01" length="4.04" shape="135.16,28.83 135.71,24.98 135.78,24.85"/>
    </edge>
    <edge id=":24_12" function="internal">
        <lane id=":24_12_0" index="0" speed="8.01" length="10.16" shape="135.78,24.85 137.36,22.22 140.10,20.56 143.94,19.99"/>
    </edge>
    <edge id=":24_3" function="internal">
        <lane id=":24_3_0" index="0" speed="6.52" length="9.05" shape="143.95,23.19 141.51,23.55 139.76,24.61 138.71,26.37 138.36,28.83"/>
    </edge>
    <edge id=":24_4" function="internal">
        <lane id=":24_4_0" index="0" speed="13.89" length="14.41" shape="143.95,23.19 129.54,23.24"/>
    </edge>
    <edge id=":24_5" function="internal">
        <lane id=":24_5_0" index="0" speed="8.03" length="4.06" shape="143.95,23.19 140.11,22.66 139.95,22.57"/>
    </edge>
    <edge id=":24_13" function="internal">
        <lane id=":24_13_0" index="0" speed="8.03" length="10.15" shape="139.95,22.57 137.35,21.01 135.67,18.27 135.09,14.41"/>
    </edge>
    <edge id=":24_6" function="internal">
        <lane id=":24_6_0" index="0" speed="6.54" length="9.07" shape="138.29,14.38 138.66,16.84 139.73,18.60 141.49,19.65 143.94,19.99"/>
    </edge>
    <edge id=":24_7" function="internal">
        <lane id=":24_7_0" index="0" speed="13.89" length="14.45" shape="138.29,14.38 138.36,28.83"/>
    </edge>
    <edge id=":24_8" function="internal">
        <lane id=":24_8_0" index="0" speed="7.99" length="4.11" shape="138.29,14.38 137.77,18.25 137.67,18.43"/>
    </edge>
    <edge id=":24_14" function="internal">
        <lane id=":24_14_0" index="0" speed="7.99" length="10.11" shape="137.67,18.43 136.14,21.01 133.40,22.68 129.54,23.24"/>
    </edge>
    <edge id=":24_9" function="internal">
        <lane id=":24_9_0" index="0" speed="6.49" length="9.03" shape="129.53,20.04 131.98,19.68 133.73,18.63 134.76,16.87 135.09,14.41"/>
    </edge>
    <edge id=":24_10" function="internal">
        <lane id=":24_10_0" index="0" speed="13.89" length="14.41" shape="129.53,20.04 143.94,19.99"/>
    </edge>
    <edge id=":24_11" function="internal">
        <lane id=":24_11_0" index="0" speed="8.00" length="4.07" shape="129.53,20.04 133.39,20.58 133.54,20.67"/>
    </edge>
    <edge id=":24_15" function="internal">
        <lane id=":24_15_0" index="0" speed="8.00" length="10.14" shape="133.54,20.67 136.15,22.23 137.81,24.97 138.36,28.83"/>
    </edge>
    <edge id=":32_0" function="internal">
        <lane id=":32_0_0" index="0" speed="6.49" length="4.19" shape="-86.64,-65.25 -87.71,-65.36 -88.68,-65.68 -89.54,-66.21 -90.31,-66.96"/>
    </edge>
    <edge id=":32_1" function="internal">
        <lane id=":32_1_0" index="0" speed="4.12" length="1.40" shape="-87.86,-69.02 -87.61,-68.77 -87.32,-68.59 -87.00,-68.49 -86.64,-68.45"/>
    </edge>
    <edge id=":33_0" function="internal">
        <lane id=":33_0_0" index="0" speed="6.51" length="9.04" shape="28.22,-59.64 27.87,-62.09 26.82,-63.85 25.07,-64.90 22.62,-65.25"/>
    </edge>
    <edge id=":33_1" function="internal">
        <lane id=":33_1_0" index="0" speed="13.89" length="14.41" shape="28.22,-59.64 28.22,-74.05"/>
    </edge>
    <edge id=":33_2" function="internal">
        <lane id=":33_2_0" index="0" speed="8.00" length="4.07" shape="28.22,-59.64 28.77,-63.50 28.86,-63.65"/>
    </edge>
    <edge id=":33_12" function="internal">
        <lane id=":33_12_0" index="0" speed="8.00" length="10.13" shape="28.86,-63.65 30.42,-66.24 33.18,-67.89 37.03,-68.43"/>
    </edge>
    <edge id=":33_3" function="internal">
        <lane id=":33_3_0" index="0" speed="6.50" length="9.03" shape="37.02,-65.23 34.57,-64.89 32.82,-63.84 31.77,-62.09 31.42,-59.64"/>
    </edge>
    <edge id=":33_4" function="internal">
        <lane id=":33_4_0" index="0" speed="13.89" length="14.40" shape="37.02,-65.23 22.62,-65.25"/>
    </edge>
    <edge id=":33_5" function="internal">
        <lane id=":33_5_0" index="0" speed="8.01" length="4.06" shape="37.02,-65.23 33.17,-65.79 33.03,-65.88"/>
    </edge>
    <edge id=":33_13" function="internal">
        <lane id=":33_13_0" index="0" speed="8.01" length="10.14" shape="33.03,-65.88 30.42,-67.45 28.77,-70.20 28.22,-74.05"/>
    </edge>
    <edge id=":33_6" function="internal">
        <lane id=":33_6_0" index="0" speed="6.52" length="9.05" shape="31.42,-74.05 31.77,-71.60 32.82,-69.84 34.58,-68.79 37.03,-68.43"/>
    </edge>
    <edge id=":33_7" function="internal">
        <lane id=":33_7_0" index="0" speed="13.89" length="14.41" shape="31.42,-74.05 31.42,-59.64"/>
    </edge>
    <edge id=":33_8" function="internal">
        <lane id=":33_8_0" index="0" speed="8.00" length="4.07" shape="31.42,-74.05 30.87,-70.20 30.78,-70.05"/>
    </edge>
    <edge id=":33_14" function="internal">
        <lane id=":33_14_0" index="0" speed="8.00" length="10.13" shape="30.78,-70.05 29.22,-67.45 26.47,-65.80 22.62,-65.25"/>
    </edge>
    <edge id=":33_9" function="internal">
        <lane id=":33_9_0" index="0" speed="6.51" length="9.03" shape="22.62,-68.45 25.07,-68.80 26.82,-69.85 27.87,-71.60 28.22,-74.05"/>
    </edge>
    <edge id=":33_10" function="internal">
        <lane id=":33_10_0" index="0" speed="13.89" length="14.41" shape="22.62,-68.45 37.03,-68.43"/>
    </edge>
    <edge id=":33_11" function="internal">
        <lane id=":33_11_0" index="0" speed="8.00" length="4.08" shape="22.62,-68.45 26.47,-67.90 26.63,-67.80"/>
    </edge>
    <edge id=":33_15" function="internal">
        <lane id=":33_15_0" index="0" speed="8.00" length="10.12" shape="26.63,-67.80 29.22,-66.25 30.87,-63.49 31.42,-59.64"/>
    </edge>
    <edge id=":34_0" function="internal">
        <lane id=":34_0_0" index="0" speed="6.54" length="9.04" shape="134.33,-59.38 133.96,-61.82 132.89,-63.56 131.13,-64.61 128.68,-64.97"/>
    </edge>
    <edge id=":34_1" function="internal">
        <lane id=":34_1_0" index="0" speed="13.89" length="14.54" shape="134.33,-59.38 134.35,-73.91"/>
    </edge>
    <edge id=":34_2" function="internal">
        <lane id=":34_2_0" index="0" speed="8.09" length="4.12" shape="134.33,-59.38 134.85,-63.21 134.98,-63.42"/>
    </edge>
    <edge id=":34_12" function="internal">
        <lane id=":34_12_0" index="0" speed="8.09" length="10.19" shape="134.98,-63.42 136.49,-65.99 139.26,-67.71 143.15,-68.38"/>
    </edge>
    <edge id=":34_3" function="internal">
        <lane id=":34_3_0" index="0" speed="6.62" length="9.22" shape="143.25,-65.18 140.73,-64.75 138.93,-63.65 137.87,-61.87 137.53,-59.41"/>
    </edge>
    <edge id=":34_4" function="internal">
        <lane id=":34_4_0" index="0" speed="13.89" length="14.57" shape="143.25,-65.18 128.68,-64.97"/>
    </edge>
    <edge id=":34_5" function="internal">
        <lane id=":34_5_0" index="0" speed="7.92" length="4.23" shape="143.25,-65.18 139.32,-65.62 139.08,-65.76"/>
    </edge>
    <edge id=":34_13" function="internal">
        <lane id=":34_13_0" index="0" speed="7.92" length="10.13" shape="139.08,-65.76 136.52,-67.22 134.86,-69.99 134.35,-73.91"/>
    </edge>
    <edge id=":34_6" function="internal">
        <lane id=":34_6_0" index="0" speed="6.41" length="9.04" shape="137.55,-73.87 137.87,-71.40 138.91,-69.67 140.67,-68.66 143.15,-68.38"/>
    </edge>
    <edge id=":34_7" function="internal">
        <lane id=":34_7_0" index="0" speed="13.89" length="14.47" shape="137.55,-73.87 137.53,-59.41"/>
    </edge>
    <edge id=":34_8" function="internal">
        <lane id=":34_8_0" index="0" speed="8.06" length="4.06" shape="137.55,-73.87 136.95,-69.97 136.90,-69.88"/>
    </edge>
    <edge id=":34_14" function="internal">
        <lane id=":34_14_0" index="0" speed="8.06" length="10.24" shape="136.90,-69.88 135.28,-67.18 132.52,-65.52 128.68,-64.97"/>
    </edge>
    <edge id=":34_9" function="internal">
        <lane id=":34_9_0" index="0" speed="6.57" length="9.17" shape="128.69,-68.17 131.14,-68.52 132.90,-69.60 133.97,-71.39 134.35,-73.91"/>
    </edge>
    <edge id=":34_10" function="internal">
        <lane id=":34_10_0" index="0" speed="13.89" length="14.46" shape="128.69,-68.17 143.15,-68.38"/>
    </edge>
    <edge id=":34_11" function="internal">
        <lane id=":34_11_0" index="0" speed="8.03" length="3.87" shape="128.69,-68.17 132.53,-67.61"/>
    </edge>
    <edge id=":34_15" function="internal">
        <lane id=":34_15_0" index="0" speed="8.03" length="10.28" shape="132.53,-67.61 135.28,-65.97 136.95,-63.23 137.53,-59.41"/>
    </edge>

    <edge id="-E0" from="23" to="J2" priority="-1">
        <lane id="-E0_0" index="0" speed="13.89" length="72.63" shape="31.42,29.11 31.42,101.74"/>
    </edge>
    <edge id="-E1" from="33" to="23" priority="-1">
        <lane id="-E1_0" index="0" speed="13.89" length="74.34" shape="31.42,-59.64 31.42,14.70"/>
    </edge>
    <edge id="-E10" from="J4" to="22" priority="-1">
        <lane id="-E10_0" index="0" speed="13.89" length="104.20" shape="-175.41,19.72 -71.21,19.72"/>
    </edge>
    <edge id="-E11" from="J1" to="22" priority="-1">
        <lane id="-E11_0" index="0" speed="13.89" length="74.10" shape="-65.61,102.64 -65.61,28.54"/>
    </edge>
    <edge id="-E12" from="J7" to="22" priority="-1">
        <lane id="-E12_0" index="0" speed="13.89" length="41.35" shape="-62.41,-27.23 -62.41,14.12"/>
    </edge>
    <edge id="-E13" from="J8" to="32" priority="-1">
        <lane id="-E13_0" index="0" speed="13.89" length="74.40" shape="-135.76,-125.96 -87.86,-69.02"/>
    </edge>
    <edge id="-E14" from="J9" to="34" priority="-1">
        <lane id="-E14_0" index="0" speed="13.89" length="67.46" shape="210.68,-67.33 143.25,-65.18"/>
    </edge>
    <edge id="-E15" from="J10" to="34" priority="-1">
        <lane id="-E15_0" index="0" speed="13.89" length="68.02" shape="138.36,-141.89 137.55,-73.87"/>
    </edge>
    <edge id="-E2" from="J5" to="33" priority="-1">
        <lane id="-E2_0" index="0" speed="13.89" length="86.33" shape="31.42,-160.38 31.42,-74.05"/>
    </edge>
    <edge id="-E3" from="34" to="33" priority="-1">
        <lane id="-E3_0" index="0" speed="13.89" length="91.66" shape="128.68,-64.97 37.02,-65.23"/>
    </edge>
    <edge id="-E4" from="32" to="33" priority="-1">
        <lane id="-E4_0" index="0" speed="13.89" length="109.26" shape="-86.64,-68.45 22.62,-68.45"/>
    </edge>
    <edge id="-E5" from="24" to="23" priority="-1">
        <lane id="-E5_0" index="0" speed="13.89" length="92.51" shape="129.54,23.24 37.03,23.50"/>
    </edge>
    <edge id="-E6" from="34" to="24" priority="-1">
        <lane id="-E6_0" index="0" speed="13.89" length="73.79" shape="137.53,-59.41 138.29,14.38"/>
    </edge>
    <edge id="-E7" from="J3" to="24" priority="-1">
        <lane id="-E7_0" index="0" speed="13.89" length="54.74" shape="135.16,83.57 135.16,28.83"/>
    </edge>
    <edge id="-E8" from="J6" to="24" priority="-1">
        <lane id="-E8_0" index="0" speed="13.89" length="75.91" shape="219.87,22.92 143.95,23.19"/>
    </edge>
    <edge id="-E9" from="22" to="23" priority="-1">
        <lane id="-E9_0" index="0" speed="13.89" length="79.39" shape="-56.78,19.77 22.61,20.27"/>
    </edge>
    <edge id="E0" from="J2" to="23" priority="-1">
        <lane id="E0_0" index="0" speed="13.89" length="72.63" shape="28.22,101.74 28.22,29.11"/>
    </edge>
    <edge id="E1" from="23" to="33" priority="-1">
        <lane id="E1_0" index="0" speed="13.89" length="74.34" shape="28.22,14.70 28.22,-59.64"/>
    </edge>
    <edge id="E10" from="22" to="J4" priority="-1">
        <lane id="E10_0" index="0" speed="13.89" length="104.20" shape="-71.21,22.92 -175.41,22.92"/>
    </edge>
    <edge id="E11" from="22" to="J1" priority="-1">
        <lane id="E11_0" index="0" speed="13.89" length="74.10" shape="-62.41,28.54 -62.41,102.64"/>
    </edge>
    <edge id="E12" from="22" to="J7" priority="-1">
        <lane id="E12_0" index="0" speed="13.89" length="41.35" shape="-65.61,14.12 -65.61,-27.23"/>
    </edge>
    <edge id="E13" from="32" to="J8" priority="-1">
        <lane id="E13_0" index="0" speed="13.89" length="74.40" shape="-90.31,-66.96 -138.20,-123.90"/>
    </edge>
    <edge id="E14" from="34" to="J9" priority="-1">
        <lane id="E14_0" index="0" speed="13.89" length="67.46" shape="143.15,-68.38 210.58,-70.53"/>
    </edge>
    <edge id="E15" from="34" to="J10" priority="-1">
        <lane id="E15_0" index="0" speed="13.89" length="68.02" shape="134.35,-73.91 135.16,-141.93"/>
    </edge>
    <edge id="E2" from="33" to="J5" priority="-1">
        <lane id="E2_0" index="0" speed="13.89" length="86.33" shape="28.22,-74.05 28.22,-160.38"/>
    </edge>
    <edge id="E3" from="33" to="34" priority="-1">
        <lane id="E3_0" index="0" speed="13.89" length="91.66" shape="37.03,-68.43 128.69,-68.17"/>
    </edge>
    <edge id="E4" from="33" to="32" priority="-1">
        <lane id="E4_0" index="0" speed="13.89" length="109.26" shape="22.62,-65.25 -86.64,-65.25"/>
    </edge>
    <edge id="E5" from="23" to="24" priority="-1">
        <lane id="E5_0" index="0" speed="13.89" length="92.51" shape="37.02,20.30 129.53,20.04"/>
    </edge>
    <edge id="E6" from="24" to="34" priority="-1">
        <lane id="E6_0" index="0" speed="13.89" length="73.79" shape="135.09,14.41 134.33,-59.38"/>
    </edge>
    <edge id="E7" from="24" to="J3" priority="-1">
        <lane id="E7_0" index="0" speed="13.89" length="54.74" shape="138.36,28.83 138.36,83.57"/>
    </edge>
    <edge id="E8" from="24" to="J6" priority="-1">
        <lane id="E8_0" index="0" speed="13.89" length="75.91" shape="143.94,19.99 219.85,19.72"/>
    </edge>
    <edge id="E9" from="23" to="22" priority="-1">
        <lane id="E9_0" index="0" speed="13.89" length="79.39" shape="22.59,23.47 -56.80,22.97"/>
    </edge>

    <tlLogic id="J11" type="static" programID="0" offset="0">
        <phase duration="42" state="GGgrrrGGgrrr"/>
        <phase duration="3"  state="yyyrrryyyrrr"/>
        <phase duration="42" state="rrrGGgrrrGGg"/>
        <phase duration="3"  state="rrryyyrrryyy"/>
    </tlLogic>
    <tlLogic id="J3" type="static" programID="0" offset="0">
        <phase duration="42" state="GGgrrrGGgrrr"/>
        <phase duration="3"  state="yyyrrryyyrrr"/>
        <phase duration="42" state="rrrGGgrrrGGg"/>
        <phase duration="3"  state="rrryyyrrryyy"/>
    </tlLogic>
    <tlLogic id="J4" type="static" programID="0" offset="0">
        <phase duration="42" state="GGgrrrGGgrrr"/>
        <phase duration="3"  state="yyyrrryyyrrr"/>
        <phase duration="42" state="rrrGGgrrrGGg"/>
        <phase duration="3"  state="rrryyyrrryyy"/>
    </tlLogic>
    <tlLogic id="J6" type="static" programID="0" offset="0">
        <phase duration="42" state="GGgrrrGGgrrr"/>
        <phase duration="3"  state="yyyrrryyyrrr"/>
        <phase duration="42" state="rrrGGgrrrGGg"/>
        <phase duration="3"  state="rrryyyrrryyy"/>
    </tlLogic>
    <tlLogic id="J8" type="static" programID="0" offset="0">
        <phase duration="42" state="rrrGGgrrrGGg"/>
        <phase duration="3"  state="rrryyyrrryyy"/>
        <phase duration="42" state="GGgrrrGGgrrr"/>
        <phase duration="3"  state="yyyrrryyyrrr"/>
    </tlLogic>

    <junction id="22" type="traffic_light" x="-64.01" y="21.32" incLanes="-E11_0 E9_0 -E12_0 -E10_0" intLanes=":22_0_0 :22_1_0 :22_12_0 :22_3_0 :22_4_0 :22_13_0 :22_6_0 :22_7_0 :22_14_0 :22_9_0 :22_10_0 :22_15_0" shape="-67.21,28.54 -60.81,28.54 -60.37,26.32 -59.81,25.55 -59.03,25.00 -58.03,24.67 -56.81,24.57 -56.77,18.17 -59.01,17.71 -59.80,17.14 -60.36,16.36 -60.70,15.35 -60.81,14.12 -67.21,14.12 -67.65,16.34 -68.21,17.12 -68.99,17.68 -69.99,18.01 -71.21,18.12 -71.21,24.52 -68.99,24.97 -68.21,25.53 -67.65,26.31 -67.32,27.31">
        <request index="0"  response="000000000000" foes="000100010000" cont="0"/>
        <request index="1"  response="100000100000" foes="111100110000" cont="0"/>
        <request index="2"  response="100111100000" foes="110111110000" cont="1"/>
        <request index="3"  response="000010000000" foes="100010000000" cont="0"/>
        <request index="4"  response="000110000111" foes="100110000111" cont="0"/>
        <request index="5"  response="011110000110" foes="111110000110" cont="1"/>
        <request index="6"  response="000000000000" foes="010000000100" cont="0"/>
        <request index="7"  response="100000100000" foes="110000111100" cont="0"/>
        <request index="8"  response="100000100011" foes="110000110111" cont="1"/>
        <request index="9"  response="000000000010" foes="000000100010" cont="0"/>
        <request index="10" response="000111000110" foes="000111100110" cont="0"/>
        <request index="11" response="000110111110" foes="000110111110" cont="1"/>
    </junction>
    <junction id="23" type="traffic_light" x="29.82" y="21.92" incLanes="E0_0 -E5_0 -E1_0 -E9_0" intLanes=":23_0_0 :23_1_0 :23_12_0 :23_3_0 :23_4_0 :23_13_0 :23_6_0 :23_7_0 :23_14_0 :23_9_0 :23_10_0 :23_15_0" shape="26.62,29.11 33.02,29.11 33.47,26.89 34.02,26.11 34.81,25.55 35.81,25.21 37.04,25.10 37.02,18.70 34.80,18.26 34.02,17.71 33.46,16.93 33.13,15.92 33.02,14.70 26.62,14.70 26.18,16.92 25.62,17.69 24.84,18.24 23.84,18.57 22.62,18.67 22.58,25.07 24.82,25.53 25.61,26.10 26.17,26.88 26.51,27.88">
        <request index="0"  response="000000000000" foes="000100010000" cont="0"/>
        <request index="1"  response="100000100000" foes="111100110000" cont="0"/>
        <request index="2"  response="100011100000" foes="110111110000" cont="1"/>
        <request index="3"  response="000010000000" foes="100010000000" cont="0"/>
        <request index="4"  response="000110000111" foes="100110000111" cont="0"/>
        <request index="5"  response="111110000110" foes="111110000110" cont="1"/>
        <request index="6"  response="000000000000" foes="010000000100" cont="0"/>
        <request index="7"  response="100000100000" foes="110000111100" cont="0"/>
        <request index="8"  response="100000100111" foes="110000110111" cont="1"/>
        <request index="9"  response="000000000010" foes="000000100010" cont="0"/>
        <request index="10" response="000111000110" foes="000111100110" cont="0"/>
        <request index="11" response="000110011110" foes="000110111110" cont="1"/>
    </junction>
    <junction id="24" type="traffic_light" x="136.76" y="21.62" incLanes="-E7_0 -E8_0 -E6_0 E5_0" intLanes=":24_0_0 :24_1_0 :24_12_0 :24_3_0 :24_4_0 :24_13_0 :24_6_0 :24_7_0 :24_14_0 :24_9_0 :24_10_0 :24_15_0" shape="133.56,28.83 139.96,28.83 140.40,26.59 140.96,25.81 141.74,25.25 142.74,24.91 143.96,24.79 143.94,18.39 141.70,17.95 140.92,17.39 140.35,16.61 140.01,15.60 139.89,14.36 133.49,14.43 133.06,16.65 132.52,17.43 131.74,17.99 130.75,18.33 129.53,18.44 129.55,24.84 131.78,25.28 132.56,25.83 133.11,26.61 133.45,27.61">
        <request index="0"  response="000000010000" foes="000100010000" cont="0"/>
        <request index="1"  response="111000110000" foes="111100110000" cont="0"/>
        <request index="2"  response="110011110000" foes="110111110000" cont="1"/>
        <request index="3"  response="000000000000" foes="100010000000" cont="0"/>
        <request index="4"  response="000100000100" foes="100110000111" cont="0"/>
        <request index="5"  response="111100000100" foes="111110000110" cont="1"/>
        <request index="6"  response="010000000000" foes="010000000100" cont="0"/>
        <request index="7"  response="110000111000" foes="110000111100" cont="0"/>
        <request index="8"  response="110000110111" foes="110000110111" cont="1"/>
        <request index="9"  response="000000000000" foes="000000100010" cont="0"/>
        <request index="10" response="000100000100" foes="000111100110" cont="0"/>
        <request index="11" response="000100011100" foes="000110111110" cont="1"/>
    </junction>
    <junction id="32" type="priority" x="-88.13" y="-66.85" incLanes="E4_0 -E13_0" intLanes=":32_0_0 :32_1_0" shape="-86.64,-63.65 -86.64,-70.05 -91.54,-65.93 -90.14,-64.66 -89.35,-64.22 -88.51,-63.90 -87.60,-63.71">
        <request index="0" response="00" foes="00" cont="0"/>
        <request index="1" response="00" foes="00" cont="0"/>
    </junction>
    <junction id="33" type="traffic_light" x="29.82" y="-66.85" incLanes="E1_0 -E3_0 -E2_0 -E4_0" intLanes=":33_0_0 :33_1_0 :33_12_0 :33_3_0 :33_4_0 :33_13_0 :33_6_0 :33_7_0 :33_14_0 :33_9_0 :33_10_0 :33_15_0" shape="26.62,-59.64 33.02,-59.64 33.46,-61.86 34.02,-62.64 34.80,-63.19 35.80,-63.52 37.02,-63.63 37.04,-70.03 34.81,-70.48 34.02,-71.04 33.47,-71.82 33.13,-72.82 33.02,-74.05 26.62,-74.05 26.18,-71.83 25.62,-71.05 24.84,-70.49 23.84,-70.16 22.62,-70.05 22.62,-63.65 24.84,-63.20 25.62,-62.65 26.18,-61.87 26.51,-60.87">
        <request index="0"  response="000000000000" foes="000100010000" cont="0"/>
        <request index="1"  response="100000100000" foes="111100110000" cont="0"/>
        <request index="2"  response="100011100000" foes="110111110000" cont="1"/>
        <request index="3"  response="000010000000" foes="100010000000" cont="0"/>
        <request index="4"  response="000110000111" foes="100110000111" cont="0"/>
        <request index="5"  response="111110000110" foes="111110000110" cont="1"/>
        <request index="6"  response="000000000000" foes="010000000100" cont="0"/>
        <request index="7"  response="100000100000" foes="110000111100" cont="0"/>
        <request index="8"  response="100000100111" foes="110000110111" cont="1"/>
        <request index="9"  response="000000000010" foes="000000100010" cont="0"/>
        <request index="10" response="000111000110" foes="000111100110" cont="0"/>
        <request index="11" response="000110011110" foes="000110111110" cont="1"/>
    </junction>
    <junction id="34" type="traffic_light" x="135.86" y="-66.55" incLanes="E6_0 -E14_0 -E15_0 E3_0" intLanes=":34_0_0 :34_1_0 :34_12_0 :34_3_0 :34_4_0 :34_13_0 :34_6_0 :34_7_0 :34_14_0 :34_9_0 :34_10_0 :34_15_0" shape="132.73,-59.36 139.13,-59.42 139.58,-61.68 140.15,-62.48 140.97,-63.06 142.02,-63.43 143.30,-63.59 143.10,-69.98 140.88,-70.36 140.11,-70.89 139.57,-71.65 139.24,-72.64 139.15,-73.85 132.75,-73.93 132.28,-71.61 131.71,-70.80 130.93,-70.23 129.92,-69.88 128.70,-69.77 128.68,-63.37 130.91,-62.92 131.70,-62.36 132.26,-61.58 132.61,-60.58">
        <request index="0"  response="000000000000" foes="000100010000" cont="0"/>
        <request index="1"  response="100000100000" foes="111100110000" cont="0"/>
        <request index="2"  response="100011100000" foes="110111110000" cont="1"/>
        <request index="3"  response="000010000000" foes="100010000000" cont="0"/>
        <request index="4"  response="000110000111" foes="100110000111" cont="0"/>
        <request index="5"  response="111110000110" foes="111110000110" cont="1"/>
        <request index="6"  response="000000000000" foes="010000000100" cont="0"/>
        <request index="7"  response="100000100000" foes="110000111100" cont="0"/>