<routes>
    <vType id="car_type" accel="2.6" decel="4.5" sigma="0.5" length="5.0" maxSpeed="13.89" color="1,0,0"/>

    <flow id="f1" 
          type="car_type" 
          from="-E2" 
          to="E7" 
          begin="0" 
          end="3600" 
          probability="0.3"
          departLane="best" 
          departSpeed="max"/>

    <flow id="f2" 
          type="car_type" 
          from="-E13" 
          to="-E0" 
          begin="0" 
          end="3600" 
          probability="0.5"
          departLane="best"/>

    <flow id="f3" 
          type="car_type" 
          from="-E10" 
          to="E14" 
          begin="0" 
          end="3600" 
          probability="0.4"
          departLane="best"/>

    <flow id="f4" 
          type="car_type" 
          from="-E13" 
          to="E12" 
          begin="0" 
          end="3600" 
          probability="0.1"
          departLane="best"/>

    <flow id="f5" 
          type="car_type" 
          from="-E8" 
          to="E10" 
          begin="0" 
          end="3600" 
          probability="0.8"
          departLane="best"/>

    <flow id="f6" 
          type="car_type" 
          from="-E15" 
          to="E12" 
          begin="0" 
          end="3600" 
          probability="0.2"
          departLane="best"/>

    <flow id="f7" 
          type="car_type" 
          from="-E8" 
          to="E10" 
          begin="0" 
          end="3600" 
          probability="0.1"
          departLane="best"/>

    <flow id="f8" 
          type="car_type" 
          from="-E13" 
          to="E11" 
          begin="0" 
          end="3600" 
          probability="0.2"
          departLane="best"/>

    <flow id="f9" 
          type="car_type" 
          from="-E8" 
          to="E14" 
          begin="0" 
          end="3600" 
          probability="0.5"
          departLane="best"/>

    <flow id="f10" 
          type="car_type" 
          from="-E12" 
          to="E14" 
          begin="0" 
          end="3600" 
          probability="0.5"
          departLane="best"/>
</routes>