<configuration>
    <input>
        <net-file value="map.net.xml"/>
        <route-files value="map.rou.xml"/>
    </input>

    <time>
        <begin value="0"/>
    </time>

    <gui_only>
        <start value="true"/>
        <quit-on-end value="false"/>
    </gui_only>
</configuration>